<?xml version="1.0" encoding="UTF-8"?>

<!-- generated on 02/10/25 17:14:32 by Eclipse SUMO polyconvert Version 1.8.0
<configuration xmlns:xsi="http://www.w3.org/2001/XMLSchema-instance" xsi:noNamespaceSchemaLocation="http://sumo.dlr.de/xsd/polyconvertConfiguration.xsd">

    <input>
        <net-file value="map.net.xml"/>
        <osm-files value="map.osm"/>
    </input>

    <output>
        <output-file value="map.poly.xml"/>
    </output>

    <processing>
        <poi-layer-offset value="5"/>
    </processing>

</configuration>
-->

<additional xmlns:xsi="http://www.w3.org/2001/XMLSchema-instance" xsi:noNamespaceSchemaLocation="http://sumo.dlr.de/xsd/additional_file.xsd">
    <location netOffset="-332637.71,-6581584.98" convBoundary="-0.00,-21.55,280.27,504.59" origBoundary="18.056886,59.339639,18.062167,59.344296" projParameter="+proj=utm +zone=34 +ellps=WGS84 +datum=WGS84 +units=m +no_defs"/>

    <poly id="1355306797" type="building" color="255,230,230" fill="1" layer="-1.00" shape="140.687966,131.686790 151.136320,136.120147 155.470460,125.926815 160.772080,113.393780 143.833852,105.299914 133.849652,100.545004 129.307595,111.059758 146.092622,119.037675 140.687966,131.686790"/>
    <poly id="41955062" type="building" color="255,230,230" fill="1" layer="-1.00" shape="115.107259,68.769613 115.893359,71.477858 133.815364,80.174862 166.389056,96.007582 169.429250,94.557538 173.959793,84.166002 184.540405,59.870382 190.999785,45.045048 198.596843,27.604907 208.051043,5.912547 206.736714,2.592047 197.932158,-1.501520 169.156209,-14.904288 154.867259,-21.554218 152.969495,-20.544901 143.585860,1.579355 136.792607,17.612612 128.998341,35.998234 120.105899,56.985830 115.107259,68.769613"/>
    <poly id="41955695" type="building" color="255,230,230" fill="1" layer="-1.00" shape="176.897858,99.100304 182.825086,84.867123 187.552658,73.519126 194.262475,57.400447 200.843995,41.599660 208.202898,23.924753 213.872681,10.305123 216.655535,9.345952 227.205600,14.143000 243.562114,21.571617 267.056814,32.253247 279.274657,37.801924 280.268806,40.322606 274.716541,51.963334 268.096206,65.858987 261.230357,80.256108 253.160957,97.192907 244.773368,114.790495 237.605518,129.825424 224.866777,123.697781 209.497050,116.292586 196.740669,110.154661 184.083344,104.068151 177.547940,100.922541 176.897858,99.100304"/>
    <poly id="41956481" type="building" color="255,230,230" fill="1" layer="-1.00" shape="128.415049,210.995046 152.440496,222.232284 168.091220,229.557914 186.748642,238.289532 191.802126,227.361992 192.872869,225.040028 200.863416,207.749738 208.194027,191.893557 216.350909,174.239152 220.593458,165.064626 229.878877,144.974250 220.025858,140.347136 198.690667,130.317515 179.786639,121.429449 168.956333,116.343867 158.887820,139.847552 146.800791,168.067843 143.330789,176.160197 132.947829,200.402638 128.415049,210.995046"/>
    <poi id="1765313463" type="shop" color="237,199,255" layer="4.00" x="180.94" y="98.74"/>
    <poi id="3753076747" type="shop" color="237,199,255" layer="4.00" x="161.03" y="89.22"/>
</additional>
